/*--------------------------------*- C++ -*----------------------------------*\
  =========                 |
  \\      /  F ield         | OpenFOAM: The Open Source CFD Toolbox
   \\    /   O peration     | Website:  https://openfoam.org
    \\  /    A nd           | Version:  8
     \\/     M anipulation  |
\*---------------------------------------------------------------------------*/
FoamFile
{
    version     2.0;
    format      ascii;
    class       polyBoundaryMesh;
    location    "constant/polyMesh";
    object      boundary;
}
// * * * * * * * * * * * * * * * * * * * * * * * * * * * * * * * * * * * * * //

4
(
    top
    {
        type            patch;
        nFaces          160;
        startFace       25360;
    }
    inlet
    {
        type            patch;
        nFaces          160;
        startFace       25520;
    }
    axis
    {
        type            wall;
        inGroups        List<word> 1(wall);
        nFaces          160;
        startFace       25680;
    }
    frontAndBack
    {
        type            empty;
        inGroups        List<word> 1(empty);
        nFaces          25600;
        startFace       25840;
    }
)

// ************************************************************************* //
